# generated using pymatgen
data_SiO2
_symmetry_space_group_name_H-M   'P 1'
_cell_length_a   9.38416512
_cell_length_b   9.38416512
_cell_length_c   7.54529100
_cell_angle_alpha   90.00000000
_cell_angle_beta   90.00000000
_cell_angle_gamma   125.41504880
_symmetry_Int_Tables_number   1
_chemical_formula_structural   SiO2
_chemical_formula_sum   'Si16 O32'
_cell_volume   541.51674670
_cell_formula_units_Z   16
loop_
 _symmetry_equiv_pos_site_id
 _symmetry_equiv_pos_as_xyz
  1  'x, y, z'
loop_
 _atom_site_type_symbol
 _atom_site_label
 _atom_site_symmetry_multiplicity
 _atom_site_fract_x
 _atom_site_fract_y
 _atom_site_fract_z
 _atom_site_occupancy
  Si  Si0  1  0.98781171  0.15428041  0.08001414  1.0
  Si  Si1  1  0.00841898  0.66146432  0.06716030  1.0
  Si  Si2  1  0.15054831  0.00570875  0.92519308  1.0
  Si  Si3  1  0.50101207  0.15456127  0.07009299  1.0
  Si  Si4  1  0.15080435  0.50578923  0.94639663  1.0
  Si  Si5  1  0.50219508  0.66666667  0.06335912  1.0
  Si  Si6  1  0.33010690  0.49584150  0.43382197  1.0
  Si  Si7  1  0.32601865  0.98303714  0.44402900  1.0
  Si  Si8  1  0.66402749  0.00710194  0.92822981  1.0
  Si  Si9  1  0.66746524  0.50719572  0.94929274  1.0
  Si  Si10  1  0.49060368  0.32420561  0.57730749  1.0
  Si  Si11  1  0.82842648  0.48582389  0.43387074  1.0
  Si  Si12  1  0.49881831  0.84390091  0.55303911  1.0
  Si  Si13  1  0.85144908  0.00448015  0.42008267  1.0
  Si  Si14  1  0.00540711  0.35035410  0.57609481  1.0
  Si  Si15  1  0.98089132  0.83188867  0.57489221  1.0
  O  O16  1  0.05783223  0.36116842  0.08787733  1.0
  O  O17  1  0.36259849  0.05364637  0.90782436  1.0
  O  O18  1  0.12742879  0.43708419  0.42292683  1.0
  O  O19  1  0.45504179  0.15800838  0.57023738  1.0
  O  O20  1  0.42750917  0.04715633  0.23583928  1.0
  O  O21  1  0.06763950  0.45389690  0.76255535  1.0
  O  O22  1  0.16554033  0.16986949  0.98566126  1.0
  O  O23  1  0.32090665  0.32551064  0.50068500  1.0
  O  O24  1  0.05496970  0.85802855  0.08260530  1.0
  O  O25  1  0.35336025  0.56055574  0.90901000  1.0
  O  O26  1  0.12920983  0.94132809  0.42843145  1.0
  O  O27  1  0.44540991  0.63369167  0.57029079  1.0
  O  O28  1  0.44322935  0.55703791  0.24970250  1.0
  O  O29  1  0.06828674  0.93715256  0.73827676  1.0
  O  O30  1  0.16944345  0.67757236  0.00281129  1.0
  O  O31  1  0.31139041  0.82367281  0.49963626  1.0
  O  O32  1  0.54402697  0.34537072  0.08619986  1.0
  O  O33  1  0.84218773  0.04643328  0.91424824  1.0
  O  O34  1  0.65150811  0.46016393  0.42498480  1.0
  O  O35  1  0.94844340  0.15335914  0.57413001  1.0
  O  O36  1  0.92687219  0.04956210  0.24951907  1.0
  O  O37  1  0.56116639  0.44271211  0.75857180  1.0
  O  O38  1  0.67758816  0.16524053  0.98707379  1.0
  O  O39  1  0.81783435  0.31268547  0.48578511  1.0
  O  O40  1  0.54327653  0.84913722  0.06869689  1.0
  O  O41  1  0.84183714  0.55222479  0.90820248  1.0
  O  O42  1  0.64249209  0.94668817  0.42304624  1.0
  O  O43  1  0.95553516  0.65464767  0.56729157  1.0
  O  O44  1  0.93506983  0.56304867  0.26052686  1.0
  O  O45  1  0.55145412  0.92527300  0.74327325  1.0
  O  O46  1  0.68463183  0.67148007  0.98775223  1.0
  O  O47  1  0.82709013  0.82867680  0.48658879  1.0
